Repository of the modified code of GEOS-Chem
